#p b3lyp/6-31g(d) TD out=wfn

test

0 1
 C                  0.00000000    0.00000000    0.52887991
 H                  0.00000000    0.93775230    1.12379107
 O                  0.00000000    0.00000000   -0.67757652
 H                  0.00000000   -0.93775230    1.12379107

C:\S1.wfn

