%chk=C:\ethene.chk
# B3LYP/6-31G* opt

Title Card Required

0 1
 C                  0.00000000   -0.67759997   -0.00000000
 H                  0.92414474   -1.21655197    0.00000000
 H                 -0.92414474   -1.21655197    0.00000000
 C                 -0.00000000    0.67759997   -0.00000000
 H                 -0.92414474    1.21655197    0.00000000
 H                  0.92414474    1.21655197   -0.00000000



