%chk=beta.chk
# b3lyp/6-311g(d,p) scrf em=gd3 opt=modredundant int=fine

Title Card Required

-1 1
 N                  1.09764800   -0.74256900   -0.28621000
 H                  1.43039947    0.06903394   -0.78772789
 C                 -0.02235300   -0.50166200    0.60272300
 H                  0.04753600   -1.19899700    1.44291500
 C                 -0.02689700    0.94556300    1.15935200
 C                 -1.30712600   -0.80458600   -0.18610300
 H                  1.00317686    1.30533855    1.22134959
 H                 -0.57353111    1.56187598    0.44458345
 C                 -0.69577609    1.00827526    2.55763413
 O                 -1.50568994   -0.33557349   -1.30522141
 O                  0.01155312    1.47156512    3.48857057
 O                 -1.86593435    0.55736566    2.63897129
 C                  1.83541287   -1.87443539   -0.25759946
 C                  3.10313041   -1.82571084   -1.09089733
 H                  3.53326812   -2.82363316   -1.15274627
 H                  2.91031332   -1.44467571   -2.09677583
 H                  3.81834124   -1.15282105   -0.60914241
 O                  1.51465543   -2.86387327    0.40124285
 N                 -2.18143101   -1.62336300    0.43598265
 H                 -1.98754689   -1.89824341    1.38650371
 C                 -3.52431787   -1.85330921   -0.07760462
 H                 -3.48159863   -1.96202441   -1.16076066
 H                 -3.92536702   -2.76660699    0.36067149
 H                 -4.18906921   -1.01659390    0.16139552

1 3 6 19 F
6 3 1 13 F



