# b3lyp/cc-pvdz nosymm pop=full IOp(3/32=2)

b3lyp/lanl2dz+cc-pvdz opted

0 1
 N                  0.00000000   -1.61162800    1.56846000
 H                  0.82926200   -1.67126200    2.16557500
 H                 -0.82859500   -1.67073100    2.16654200
 N                  0.00000000    1.61162800    1.56846000
 H                 -0.82926200    1.67126200    2.16557500
 H                  0.82859500    1.67073100    2.16654200
 H                  0.00059600    2.43432400    0.94649300
 H                 -0.00059600   -2.43432400    0.94649300

