# b3lyp/genecp nosymm pop=full IOp(3/33=1,3/32=2)

b3lyp/lanl2dz+cc-pvdz opted

0 1
 Pt                 0.00000000    0.00000000    0.18690300
 Cl                -0.00002600   -1.74121400   -1.38512100
 Cl                 0.00002600    1.74121400   -1.38512100
 N                  0.00000000   -1.61162800    1.56846000
 H                  0.82926200   -1.67126200    2.16557500
 H                 -0.82859500   -1.67073100    2.16654200
 N                  0.00000000    1.61162800    1.56846000
 H                 -0.82926200    1.67126200    2.16557500
 H                  0.82859500    1.67073100    2.16654200
 H                  0.00059600    2.43432400    0.94649300
 H                 -0.00059600   -2.43432400    0.94649300

Pt 0
lanl2dz
****
H N Cl 0
cc-pvdz
****

Pt 0
lanl2dz

