%chk=C:\Users\Sobereva\Desktop\(CO)5Cr.chk
# TPSSh/genecp nosymm

Title Card Required

0 1
 Cr                 0.00000000    0.00000000    0.15015300
 C                  0.00000000    1.90791900    0.19619100
 O                 -0.01176800    3.05326100    0.25489700
 C                  1.90614300   -0.08191500    0.19619500
 O                  3.04992800   -0.14280900    0.25483800
 C                  0.00000000   -1.90791900    0.19619100
 O                  0.01176800   -3.05326100    0.25489700
 C                  0.00000000    0.00000000   -1.78767600
 O                  0.00000000    0.00000000   -2.93370000
 C                 -1.90614300    0.08191500    0.19619500
 O                 -3.04992800    0.14280900    0.25483800

Cr
SDD
****
C O
6-311G*
****

Cr
SDD

