# b3lyp/6-31g(d) pop=full nosymm

B3LYP/6-31G* opted

0 1
 N                  0.00000000    0.00000000    0.73100200
 H                  0.00000000    0.95142200    1.09979200
 H                  0.82395500   -0.47571100    1.09979200
 H                 -0.82395500   -0.47571100    1.09979200

