#p b3lyp/6-31+G* NMR geom=connectivity

template file

  0  1
C    -1.752000    1.338000    1.272000
H    -1.892000    1.420000    2.344000
C    -1.928000    2.420000    0.465000
H    -2.234000    3.376000    0.881000
C    -1.642000    2.348000   -0.926000
C    -1.727000    3.522000   -1.713000
H    -2.030000    4.453000   -1.240000
C    -1.480000    3.457000   -3.048000
H    -1.612000    4.328000   -3.685000
C    -1.001000    2.260000   -3.646000
C    -0.794000    2.272000   -5.050000
H    -1.020000    3.181000   -5.602000
C    -0.398000    1.142000   -5.683000
H    -0.329000    1.098000   -6.767000
C     0.000000    0.000000   -4.938000
C     0.398000   -1.142000   -5.683000
H     0.329000   -1.098000   -6.767000
C     0.794000   -2.272000   -5.050000
H     1.020000   -3.181000   -5.602000
C     1.001000   -2.260000   -3.646000
C     1.480000   -3.457000   -3.048000
H     1.612000   -4.328000   -3.685000
C     1.727000   -3.522000   -1.713000
H     2.030000   -4.453000   -1.240000
C     1.642000   -2.348000   -0.926000
C     1.928000   -2.420000    0.465000
H     2.234000   -3.376000    0.881000
C     1.752000   -1.338000    1.272000
H     1.892000   -1.420000    2.344000
C     1.477000   -0.064000    0.706000
C     1.283000    1.108000    1.519000
C     0.759000    1.086000    2.870000
C     0.000000    0.000000    3.509000
C    -0.759000   -1.086000    2.870000
C    -1.283000   -1.108000    1.519000
C    -1.477000    0.064000    0.706000
C    -1.477000   -0.064000   -0.706000
C    -1.283000    1.108000   -1.519000
C    -0.759000    1.086000   -2.870000
C     0.000000    0.000000   -3.509000
C     0.759000   -1.086000   -2.870000
C     1.283000   -1.108000   -1.519000
C     1.477000    0.064000   -0.706000
C     1.752000    1.338000   -1.272000
H     1.892000    1.420000   -2.344000
C     1.928000    2.420000   -0.465000
H     2.234000    3.376000   -0.881000
C     1.642000    2.348000    0.926000
C     1.727000    3.522000    1.713000
H     2.030000    4.453000    1.240000
C     1.480000    3.457000    3.048000
H     1.612000    4.328000    3.685000
C     1.001000    2.260000    3.646000
C     0.794000    2.272000    5.050000
H     1.020000    3.181000    5.602000
C     0.398000    1.142000    5.683000
H     0.329000    1.098000    6.767000
C     0.000000    0.000000    4.938000
C    -0.398000   -1.142000    5.683000
H    -0.329000   -1.098000    6.767000
C    -0.794000   -2.272000    5.050000
H    -1.020000   -3.181000    5.602000
C    -1.001000   -2.260000    3.646000
C    -1.480000   -3.457000    3.048000
H    -1.612000   -4.328000    3.685000
C    -1.727000   -3.522000    1.713000
H    -2.030000   -4.453000    1.240000
C    -1.642000   -2.348000    0.926000
C    -1.928000   -2.420000   -0.465000
H    -2.234000   -3.376000   -0.881000
C    -1.752000   -1.338000   -1.272000
H    -1.892000   -1.420000   -2.344000
Bq  -11.405823    0.190253    1.449347
Bq  -11.306705    0.176187    1.435899
Bq  -11.207587    0.162120    1.422451
Bq  -11.108469    0.148054    1.409003
Bq  -11.009352    0.133987    1.395555
Bq  -10.910234    0.119920    1.382107
Bq  -10.811116    0.105854    1.368659
Bq  -10.711999    0.091787    1.355211
Bq  -10.612881    0.077721    1.341763
Bq  -10.513763    0.063654    1.328315
Bq  -10.414645    0.049588    1.314867
Bq  -10.315528    0.035521    1.301419
Bq  -10.216410    0.021455    1.287972
Bq  -10.117292    0.007388    1.274524
Bq  -10.018174   -0.006678    1.261076
Bq   -9.919057   -0.020745    1.247628
Bq   -9.819939   -0.034811    1.234180
Bq   -9.720821   -0.048878    1.220732
Bq   -9.621703   -0.062944    1.207284
Bq   -9.522586   -0.077011    1.193836
Bq   -9.423468   -0.091077    1.180388
Bq   -9.324350   -0.105144    1.166940
Bq   -9.225232   -0.119211    1.153492
Bq   -9.126115   -0.133277    1.140044
Bq   -9.026997   -0.147344    1.126596
Bq   -8.927879   -0.161410    1.113148
Bq   -8.828762   -0.175477    1.099700
Bq   -8.729644   -0.189543    1.086252
Bq   -8.630526   -0.203610    1.072804
Bq   -8.531408   -0.217676    1.059356
Bq   -8.432291   -0.231743    1.045908
Bq   -8.333173   -0.245809    1.032461
Bq   -8.234055   -0.259876    1.019013
Bq   -8.134937   -0.273942    1.005565
Bq   -8.035820   -0.288009    0.992117
Bq   -7.936702   -0.302075    0.978669
Bq   -7.837584   -0.316142    0.965221
Bq   -7.738466   -0.330208    0.951773
Bq   -7.639349   -0.344275    0.938325
Bq   -7.540231   -0.358342    0.924877
Bq   -7.441113   -0.372408    0.911429
Bq   -7.341995   -0.386475    0.897981
Bq   -7.242878   -0.400541    0.884533
Bq   -7.143760   -0.414608    0.871085
Bq   -7.044642   -0.428674    0.857637
Bq   -6.945524   -0.442741    0.844189
Bq   -6.846407   -0.456807    0.830741
Bq   -6.747289   -0.470874    0.817293
Bq   -6.648171   -0.484940    0.803845
Bq   -6.549054   -0.499007    0.790397
Bq   -6.449936   -0.513073    0.776949
Bq   -6.350818   -0.527140    0.763502
Bq   -6.251700   -0.541206    0.750054
Bq   -6.152583   -0.555273    0.736606
Bq   -6.053465   -0.569339    0.723158
Bq   -5.954347   -0.583406    0.709710
Bq   -5.855229   -0.597473    0.696262
Bq   -5.756112   -0.611539    0.682814
Bq   -5.656994   -0.625606    0.669366
Bq   -5.557876   -0.639672    0.655918
Bq   -5.458758   -0.653739    0.642470
Bq   -5.359641   -0.667805    0.629022
Bq   -5.260523   -0.681872    0.615574
Bq   -5.161405   -0.695938    0.602126
Bq   -5.062287   -0.710005    0.588678
Bq   -4.963170   -0.724071    0.575230
Bq   -4.864052   -0.738138    0.561782
Bq   -4.764934   -0.752204    0.548334
Bq   -4.665817   -0.766271    0.534886
Bq   -4.566699   -0.780337    0.521438
Bq   -4.467581   -0.794404    0.507991
Bq   -4.368463   -0.808470    0.494543
Bq   -4.269346   -0.822537    0.481095
Bq   -4.170228   -0.836604    0.467647
Bq   -4.071110   -0.850670    0.454199
Bq   -3.971992   -0.864737    0.440751
Bq   -3.872875   -0.878803    0.427303
Bq   -3.773757   -0.892870    0.413855
Bq   -3.674639   -0.906936    0.400407
Bq   -3.575521   -0.921003    0.386959
Bq   -3.476404   -0.935069    0.373511
Bq   -3.377286   -0.949136    0.360063
Bq   -3.278168   -0.963202    0.346615
Bq   -3.179050   -0.977269    0.333167
Bq   -3.079933   -0.991335    0.319719
Bq   -2.980815   -1.005402    0.306271
Bq   -2.881697   -1.019468    0.292823
Bq   -2.782580   -1.033535    0.279375
Bq   -2.683462   -1.047602    0.265927
Bq   -2.584344   -1.061668    0.252479
Bq   -2.485226   -1.075735    0.239032
Bq   -2.386109   -1.089801    0.225584
Bq   -2.286991   -1.103868    0.212136
Bq   -2.187873   -1.117934    0.198688
Bq   -2.088755   -1.132001    0.185240
Bq   -1.989638   -1.146067    0.171792
Bq   -1.890520   -1.160134    0.158344
Bq   -1.791402   -1.174200    0.144896
Bq   -1.692284   -1.188267    0.131448
Bq   -1.593167   -1.202333    0.118000
 
     1
     2
     3
     4
     5
     6
     7
     8
     9
    10
    11
    12
    13
    14
    15
    16
    17
    18
    19
    20
    21
    22
    23
    24
    25
    26
    27
    28
    29
    30
    31
    32
    33
    34
    35
    36
    37
    38
    39
    40
    41
    42
    43
    44
    45
    46
    47
    48
    49
    50
    51
    52
    53
    54
    55
    56
    57
    58
    59
    60
    61
    62
    63
    64
    65
    66
    67
    68
    69
    70
    71
    72
    73
    74
    75
    76
    77
    78
    79
    80
    81
    82
    83
    84
    85
    86
    87
    88
    89
    90
    91
    92
    93
    94
    95
    96
    97
    98
    99
   100
   101
   102
   103
   104
   105
   106
   107
   108
   109
   110
   111
   112
   113
   114
   115
   116
   117
   118
   119
   120
   121
   122
   123
   124
   125
   126
   127
   128
   129
   130
   131
   132
   133
   134
   135
   136
   137
   138
   139
   140
   141
   142
   143
   144
   145
   146
   147
   148
   149
   150
   151
   152
   153
   154
   155
   156
   157
   158
   159
   160
   161
   162
   163
   164
   165
   166
   167
   168
   169
   170
   171
   172

 
 
