! wB97M-V def2-TZVP def2/J RIJCOSX strongSCF noautostart miniprint nopop
%maxcore  1000
%pal nprocs   8 end
* xyz   0   1
N      0.93501550   -0.02798010   -0.37889160
C      1.67396380   -0.03577660    0.74243160
C      3.07479550   -0.00944800    0.59945620
C      3.56461090    0.01954460   -0.70598720
N      2.85315100    0.02580310   -1.84095960
C      1.54907600    0.00125690   -1.58080090
N      4.08858240   -0.00544290    1.52897860
C      5.18299210    0.02539710    0.78721760
N      4.92948710    0.04124040   -0.55672740
N      1.07161770   -0.07653660    1.93913900
H      0.87944350    0.00502600   -2.43157090
H      6.18825910    0.03755420    1.17388240
H      5.60353680    0.06487550   -1.30368110
H      0.05869150   -0.04237650    2.00391810
H      1.64437960   -0.03473950    2.76191590
 *
