! wB97M-V def2-TZVP def2/J RIJCOSX strongSCF noautostart miniprint nopop
%maxcore  1000
%pal nprocs   8 end
* xyz   0   1
N      0.93501550   -0.02798010   -0.37889160
C      1.67396380   -0.03577660    0.74243160
C      3.07479550   -0.00944800    0.59945620
C      3.56461090    0.01954460   -0.70598720
N      2.85315100    0.02580310   -1.84095960
C      1.54907600    0.00125690   -1.58080090
N      4.08858240   -0.00544290    1.52897860
C      5.18299210    0.02539710    0.78721760
N      4.92948710    0.04124040   -0.55672740
N      1.07161770   -0.07653660    1.93913900
H      0.87944350    0.00502600   -2.43157090
H      6.18825910    0.03755420    1.17388240
H      5.60353680    0.06487550   -1.30368110
H      0.05869150   -0.04237650    2.00391810
H      1.64437960   -0.03473950    2.76191590
N     -3.92117290   -0.00096460   -1.51636590
C     -4.61368330    0.01690510   -0.33365200
C     -3.99173870    0.02193480    0.86633380
C     -2.53613670    0.00746510    0.87667240
N     -1.92564840   -0.01105930   -0.36389480
C     -2.53958970   -0.01494740   -1.59623570
C     -4.71061310    0.04133730    2.17386370
O     -1.86747300    0.01120930    1.91208330
O     -1.94167830   -0.02918780   -2.65737830
H     -4.40171720   -0.00360780   -2.40049240
H     -0.88382550   -0.02161680   -0.37842690
H     -5.69092200    0.02693470   -0.42271830
H     -4.44392820   -0.83025730    2.76956550
H     -4.42670560    0.91861780    2.75302560
H     -5.78839710    0.05055300    2.02472800
 *
