! wB97M-V def2-TZVP def2/J RIJCOSX strongSCF noautostart miniprint nopop
%maxcore  1000
%pal nprocs   8 end
* xyz   0   1
N     -3.92117290   -0.00096460   -1.51636590
C     -4.61368330    0.01690510   -0.33365200
C     -3.99173870    0.02193480    0.86633380
C     -2.53613670    0.00746510    0.87667240
N     -1.92564840   -0.01105930   -0.36389480
C     -2.53958970   -0.01494740   -1.59623570
C     -4.71061310    0.04133730    2.17386370
O     -1.86747300    0.01120930    1.91208330
O     -1.94167830   -0.02918780   -2.65737830
H     -4.40171720   -0.00360780   -2.40049240
H     -0.88382550   -0.02161680   -0.37842690
H     -5.69092200    0.02693470   -0.42271830
H     -4.44392820   -0.83025730    2.76956550
H     -4.42670560    0.91861780    2.75302560
H     -5.78839710    0.05055300    2.02472800
 *
