%mem=20GB
%nprocshared=8
%chk=C:\1.chk
# B3LYP/6-31G* nosymm

Title Card Required

0 1
 C                 -0.61472329    1.70015204    0.00000000
 C                  0.61472329    1.70015204    0.00000000
 H                 -1.57634143    2.16184894    0.00000000
 H                  1.57634143    2.16184894    0.00000000

 1 2 3.0 3 1.0
 2 4 1.0
 3
 4

