# B3LYP/aug-cc-pVDZ freq=ROA

Geometry has been optimized at B3LYP/aug-cc-pVDZ

0 1
 C                 -1.04473700    0.61999400   -0.06138000
 C                  0.15501100   -0.03224000    0.48702200
 H                 -1.87674800    0.88139300    0.59781300
 H                 -0.96018900    1.21502100   -0.97519800
 H                  0.15524000   -0.24879700    1.56123600
 O                 -0.83133900   -0.79417400   -0.23887900
 C                  1.51355600    0.09803100   -0.15000300
 H                  2.08458200    0.90646700    0.33045700
 H                  2.08403100   -0.83472000   -0.03583100
 H                  1.42081400    0.31931600   -1.22127200

500nm 532nm 600nm

