%chk=C:\butadiene.chk
# b3lyp/6-31g(d) pop=nboread

b3lyp/6-31g(d) opted for neutral state

0 1
 C                  0.60190211    1.75142716   -0.00000000
 H                  1.52434052    2.32414955   -0.00000000
 H                 -0.32532673    2.32053075   -0.00000000
 C                  0.60190211    0.41086677   -0.00000000
 H                  1.55160568   -0.12514610   -0.00000000
 C                 -0.60190211   -0.41086677    0.00000000
 H                 -1.55160568    0.12514610    0.00000000
 C                 -0.60190211   -1.75142716    0.00000000
 H                 -1.52434052   -2.32414955   -0.00000000
 H                  0.32532673   -2.32053075    0.00000000

$NBO plot file=C:\butadiene $END

