# B3LYP/6-31G** pop=nboread

Generated by Multiwfn

 0 1
C      0.60180003    1.75050480    0.00000000
H     -0.32508753    2.31854834    0.00000000
H      1.52387750    2.32224216    0.00000000
C      0.60180003    0.41067144    0.00000000
H      1.55113518   -0.12465745    0.00000000
C     -0.60180003   -0.41067144    0.00000000
H     -1.55113518    0.12465745    0.00000000
C     -0.60180003   -1.75050480    0.00000000
H      0.32508753   -2.31854834    0.00000000
H     -1.52387750   -2.32224216    0.00000000
 
$NBO archive file=C:\butadiene $END