#p UM062X/6-31G* guess=mix out=wfn pop=no

ub3lyp/6-31g(d) opted

0 1
 C                 -0.74400100    1.78566400    0.00000000
 H                 -0.60282700    2.33865300    0.92499500
 H                 -0.60282700    2.33865300   -0.92499500
 C                 -0.74400100    0.30988100    0.00000000
 H                 -1.25452600   -0.08746700    0.88463900
 H                 -1.25452600   -0.08746700   -0.88463900
 C                  0.74400100   -0.30988100    0.00000000
 H                  1.25452600    0.08746700   -0.88463900
 H                  1.25452600    0.08746700    0.88463900
 C                  0.74400100   -1.78566400    0.00000000
 H                  0.60282700   -2.33865300   -0.92499500
 H                  0.60282700   -2.33865300    0.92499500

C:\C4H8-UNO.wfn

