%chk=C:\ethanol_triplet.chk
# b3lyp/6-31g(d,p) pop=nboread

Title Card Required

0 3
 C                  1.17226709   -0.41072303    0.00000000
 H                  1.13771809   -1.05163908    0.88599407
 H                  1.13771809   -1.05163908   -0.88599407
 H                  2.12205116    0.13375701    0.00000000
 C                 -0.00000000    0.55538204    0.00000000
 H                  0.05250700    1.20820309    0.88674507
 H                  0.05250700    1.20820309   -0.88674507
 O                 -1.19886209   -0.21416002    0.00000000
 H                 -1.94520615    0.39844103    0.00000000

$NBO file=C:\ethanol_triplet archive $END
