%chk=C:\Ferrocene.chk
#P B3LYP/genecp

Generated by Multiwfn

 0 1
C      0.71424444   -0.98329460    1.67961969
C      0.00002195    1.21495655    1.67900206
C     -0.71413461   -0.98326217    1.67940446
H      2.18522793    0.70990830    1.65113818
H     -2.18505911    0.70992410    1.65100951
Fe     0.00000000    0.00000000    0.00000000
C      1.15562450    0.37531631    1.67894181
C     -1.15552295    0.37533384    1.67887211
H      1.35035653   -1.85936855    1.65260531
H      0.00001789    2.29751544    1.65210724
H     -1.35021083   -1.85931277    1.65229347
C     -0.71424444    0.98329460   -1.67961969
C     -0.00002195   -1.21495655   -1.67900206
C      0.71413461    0.98326217   -1.67940446
C     -1.15562450   -0.37531631   -1.67894181
C      1.15552295   -0.37533384   -1.67887211
H     -1.35035653    1.85936855   -1.65260531
H     -0.00001789   -2.29751544   -1.65210724
H      1.35021083    1.85931277   -1.65229347
H     -2.18522793   -0.70990830   -1.65113818
H      2.18505911   -0.70992410   -1.65100951

C H
6-31G*
****
Fe
lanl2dz
****

Fe
lanl2dz

