# B3LYP/6-31G* pop=nboread

B3LYP/6-31G* opted

0 1
 C                  0.00000000    0.00000000   -0.56221066
 H                  0.00000000   -0.92444767   -1.10110537
 H                 -0.00000000    0.92444767   -1.10110537
 O                  0.00000000    0.00000000    0.69618930

$NBO DMNAO $END

