#p b3lyp/6-31g* nosymm out=wfn

b3lyp/6-31G* out=wfn nosymm

0 1
 N                 -0.18467745    2.02924867   -0.80871929
 N                  2.15548385    0.31164017   -0.80147788
 N                  0.43772704   -2.02922467   -0.78329363
 N                 -1.90341657   -0.31176636   -0.79042327
 C                 -1.39843233    2.65522574   -0.81118758
 C                  0.78415722    2.99045028   -0.81703408
 C                  2.78144326    1.52369054   -0.81101602
 C                  3.11666929   -0.65867125   -0.79740348
 C                  1.65039005   -2.65537496   -0.78170728
 C                 -0.53219948   -2.99059951   -0.77586078
 C                 -2.52933372   -1.52482815   -0.78187267
 C                 -2.86357743    0.65768382   -0.79559698
 C                 -2.63303628    2.02550758   -0.80540755
 C                  2.15198165    2.75943226   -0.81755608
 C                  2.88597632   -2.02550661   -0.78759908
 C                 -1.89893205   -2.75940826   -0.77445683
 C                 -1.18448410    4.08525501   -0.82061035
 C                  0.15294699    4.29067345   -0.82386914
 C                  4.21153649    1.31134160   -0.81179069
 C                  4.41695353   -0.02594802   -0.80344932
 C                  1.43742415   -4.08525403   -0.77239628
 C                  0.09995078   -4.28966105   -0.76814995
 C                 -3.95848690   -1.31131760   -0.78022223
 C                 -4.16401348    0.02594899   -0.78955732
 H                 -1.95916915    4.82115947   -0.82471782
 H                  0.67120234    5.22415713   -0.83017451
 H                  4.94746972    2.08602881   -0.81828641
 H                  5.35162356   -0.54506134   -0.80187492
 H                  2.21298197   -4.82103133   -0.76939429
 H                 -0.41902552   -5.22426031   -0.76073292
 H                 -4.69442012   -2.08600482   -0.77372651
 H                 -5.09770120    0.54521251   -0.79124349
 H                  2.78749043    3.62492656   -0.82414224
 H                 -3.49792109    2.66056022   -0.80729806
 H                 -2.53444084   -3.62490256   -0.76787067
 H                  3.75184346   -2.66040905   -0.78582034
 Mg                 0.12701596    0.00008710   -0.79606234

c:\MN.wfn