# B3LYP/6-31G** opt pop=nboread

B3LYP/6-31G** opt

0 1
 C                 -0.03549095   -0.45781414    0.00000000
 H                 -0.01702195   -1.52765473    0.00000000
 O                 -1.28606421    0.23570336    0.00000000
 N                  1.07346837    0.20822655    0.00000000
 H                  1.05620762    1.20807757    0.00000000
 H                  1.94799512   -0.27675072    0.00000000

$NBO plot file=c:\NH2COH $END

