#p b3lyp/6-31g* nosymm out=wfn

b3lyp/6-31G* out=wfn nosymm

0 1
 N                 -0.08600001    0.00000000    1.47600011
 C                 -1.24900010    0.00000000    2.22100017
 H                 -2.22100017    0.00000000    1.73600013
 C                 -0.95900007    0.00000000    3.57200027
 C                 -1.82400014    0.00000000    4.79600036
 H                 -1.65200013   -0.89200007    5.42300041
 H                 -1.65200013    0.89300007    5.42300041
 H                 -2.88200022    0.00000000    4.49400034
 N                  0.43200003    0.00000000    3.62700027
 H                  0.99100008   -0.00100000    4.47400034
 C                  0.91200007    0.00000000    2.34400018
 H                  1.96800015    0.00000000    2.09100016

c:\NN.wfn