# b3lyp/6-31g(d) pop=nboread

B3LYP/6-31G* opted

0 1
 C                  0.00000000    3.56170443   -0.29631790
 C                  0.00000000    2.83732848    0.87908396
 C                  0.00000000    1.42293840    0.86600943
 C                  0.00000000    0.72894463   -0.38090931
 C                  0.00000000    1.50038212   -1.56687921
 C                  0.00000000    2.88294652   -1.52930736
 C                  0.00000000    0.67978135    2.09387164
 C                 -0.00000000   -0.72894463   -0.38090931
 C                 -0.00000000   -1.42293840    0.86600943
 C                 -0.00000000   -0.67978135    2.09387164
 C                 -0.00000000   -2.83732848    0.87908396
 H                 -0.00000000   -3.34813197    1.83936819
 C                 -0.00000000   -3.56170443   -0.29631790
 C                 -0.00000000   -2.88294652   -1.52930736
 C                 -0.00000000   -1.50038212   -1.56687921
 H                  0.00000000    1.23270172    3.03031703
 H                  0.00000000    4.64805348   -0.27180616
 H                  0.00000000    3.34813197    1.83936819
 H                  0.00000000    1.00691047   -2.53294453
 H                  0.00000000    3.44695155   -2.45824213
 H                 -0.00000000   -1.23270172    3.03031703
 H                 -0.00000000   -4.64805348   -0.27180616
 H                 -0.00000000   -3.44695155   -2.45824213
 H                 -0.00000000   -1.00691047   -2.53294453

$NBO DMNAO $END

