# B972/def2TZVP NMR scrf

Title Card Required

0 1
 N                  0.92594800   -1.61659600   -0.62194700
 H                  1.66013900   -1.34495200    0.09485600
 C                  0.17268900   -0.31148100   -0.73299400
 H                  0.10529000   -0.04808500   -1.78716800
 C                 -1.23982500   -0.45127900   -0.13389900
 C                  1.07309800    0.72350600    0.02432700
 H                 -1.68190300   -1.34676800   -0.58887200
 C                 -1.21105100   -0.64494500    1.38779300
 C                 -2.11382500    0.74415500   -0.52444900
 O                  2.00701200    0.19664200    0.69572200
 H                 -0.83293900    0.25311000    1.88261700
 H                 -2.21991000   -0.83717900    1.75883500
 H                 -0.58267400   -1.48530000    1.69551000
 H                 -2.18040700    0.84387200   -1.61116200
 H                 -3.12481800    0.61254300   -0.13161000
 H                 -1.69355900    1.66712300   -0.12455200
 H                  1.38280200   -1.88253500   -1.49228200
 H                  0.35585600   -2.40036200   -0.30678000
 O                  0.77348300    1.91898000   -0.09077500

