%chk=D-pi-A.chk
# CAM-B3LYP/6-31g(d) TD(nstates=5) IOp(9/40=4)

b3lyp/6-31g(d) opted

0 1
 C                  3.55863800   -1.13874700    0.39983600
 C                  2.17031600   -1.13391800    0.39359500
 C                  1.43742000   -0.00116800   -0.00471200
 C                  2.17110700    1.13110100   -0.40299400
 C                  3.55940300    1.13558700   -0.40727800
 C                  4.28212200   -0.00179500   -0.00352400
 H                  4.09455200   -2.02784200    0.72433500
 H                  1.64380000   -2.01928200    0.73875300
 H                  1.64529000    2.01808000   -0.74504200
 H                  4.09616200    2.02123700   -0.73960200
 C                 -0.04054000   -0.00032500   -0.00310400
 C                 -0.76774100    1.17023500    0.29408800
 C                 -0.76926700   -1.17039200   -0.29852300
 C                 -2.15662700    1.18010300    0.29520600
 H                 -0.23466000    2.07882500    0.55581300
 C                 -2.15818500   -1.17938400   -0.29559500
 H                 -0.23738000   -2.07901400   -0.56248400
 C                 -2.83999300    0.00051600    0.00096100
 H                 -2.71729800    2.07616700    0.53150300
 H                 -2.72002500   -2.07507500   -0.53053400
 N                 -4.30454000    0.00091700    0.00354700
 O                 -4.87879300    1.06025200    0.26346800
 O                 -4.88031200   -1.05802700   -0.25444700
 N                  5.67158300   -0.02062700   -0.05641300
 H                  6.12611700   -0.70583000    0.53327800
 H                  6.12705700    0.88202300   -0.01586900

