#p PBE1PBE/6-31+G(d) td(root=1,singlet) scrf(PCM,solvent=ethanol) out=wfn density

PBE1PBE/6-31+G(d) td(root=1,singlet) scrf(PCM,solvent=ethanol) out=wfn density

0 1
C -0.6083 -0.6342 0.4390
C 0.7767 -0.6412 0.4716
C 1.5272 0.4679 0.0352
C 0.8254 1.5922 -0.4415
C -0.5590 1.6142 -0.4860
C -1.2659 0.4971 -0.0426
H -1.1784 -1.4956 0.7681
H 1.2856 -1.5355 0.8180
H 1.3714 2.4756 -0.7587
H -1.0919 2.4872 -0.8457
N -2.7122 0.5122 -0.0829
O -3.2721 1.5149 -0.5168
O -3.3163 -0.4785 0.3181
C 2.9976 0.4521 0.0758
C 3.7637 1.1594 -0.8663
C 3.6951 -0.2698 1.0596
C 5.1495 1.1438 -0.8364
H 3.2696 1.7128 -1.6609
C 5.0803 -0.2847 1.1059
H 3.1458 -0.8077 1.8281
C 5.8382 0.4209 0.1541
H 5.7117 1.6879 -1.5920
H 5.5881 -0.8414 1.8904
N 7.2166 0.3564 0.1555
H 7.7034 1.1082 -0.3145
H 7.6539 0.1031 1.0316

c:\extP2.wfn

