%chk=C:\N-phenylpyrrole_relaxS2.chk
# TD(nstates=5,root=2) cam-b3lyp/6-31+g(d) density

B3LYP/6-31G* opted

0 1
 C                  0.00000000    1.12162900    1.82507900
 C                  0.00000000    0.71310000    3.13457400
 C                  0.00000000   -0.71310000    3.13457400
 C                  0.00000000   -1.12162900    1.82507900
 N                  0.00000000    0.00000000    1.00627300
 H                  0.00000000    2.11821400    1.41565300
 H                  0.00000000    1.36582100    3.99707700
 H                  0.00000000   -1.36582100    3.99707700
 H                  0.00000000   -2.11821400    1.41565300
 C                  0.00000000    0.00000000   -0.41287400
 C                  0.00000000   -1.20626100   -1.13056900
 C                  0.00000000    1.20626100   -1.13056900
 C                  0.00000000   -1.20041800   -2.52387400
 H                  0.00000000   -2.15723800   -0.61186000
 C                  0.00000000    1.20041800   -2.52387400
 H                  0.00000000    2.15723800   -0.61186000
 C                  0.00000000    0.00000000   -3.23381700
 H                  0.00000000   -2.14896300   -3.05414200
 H                  0.00000000    2.14896300   -3.05414200
 H                  0.00000000    0.00000000   -4.31975500

