%chk=Ru(bpy3)2+_water.chk
%mem=60GB
%nprocshared=16
#p B3LYP/genecp TD(nstates=50) scrf IOp(9/40=3)

BP86/SDD+6-31G* opted

2 1
 Ru                 0.00000000    0.00000000    0.00000000
 C                 -0.45506200    2.86278700    0.57919200
 C                 -0.95889500    4.02666800    1.18815900
 C                 -1.81793400    3.92520300    2.28821200
 C                 -2.15877900    2.64827400    2.76140800
 C                 -1.63108200    1.52520700    2.11799100
 N                 -0.79360500    1.61191400    1.04973700
 H                 -2.21410700    4.82622200    2.76583600
 H                 -0.68443300    5.01152500    0.80165400
 H                 -2.82654700    2.51554900    3.61736400
 H                 -1.86901700    0.51301400    2.45342500
 C                  0.45506200    2.86278700   -0.57919200
 C                  0.95889500    4.02666800   -1.18815900
 N                  0.79360500    1.61191400   -1.04973700
 C                  1.81793400    3.92520300   -2.28821200
 H                  0.68443300    5.01152500   -0.80165400
 C                  1.63108200    1.52520700   -2.11799100
 C                  2.15877900    2.64827400   -2.76140800
 H                  2.21410700    4.82622200   -2.76583600
 H                  1.86901700    0.51301400   -2.45342500
 H                  2.82654700    2.51554900   -3.61736400
 C                 -2.25171500   -1.82548800    0.57919200
 C                 -3.00775000   -2.84376100    1.18815900
 C                 -2.49035800   -3.53697800    2.28821200
 C                 -1.21408300   -3.19369500    2.76140800
 C                 -0.50532700   -2.17516200    2.11799100
 N                 -0.99915600   -1.49323900    1.04973700
 H                 -3.07257700   -4.33058400    2.76583600
 H                 -3.99789200   -3.09849900    0.80165400
 H                 -0.76525600   -3.70563600    3.61736400
 H                  0.49022600   -1.87512300    2.45342500
 C                 -2.70677700   -1.03729800   -0.57919200
 C                 -3.96664400   -1.18290700   -1.18815900
 N                 -1.79276100   -0.11867500   -1.04973700
 C                 -4.30829200   -0.38822400   -2.28821200
 H                 -4.68232400   -1.91302600   -0.80165400
 C                 -2.13640900    0.64995500   -2.11799100
 C                 -3.37286200    0.54542100   -2.76140800
 H                 -5.28668500   -0.49563800   -2.76583600
 H                 -1.37879100    1.36211000   -2.45342500
 H                 -3.59180300    1.19008700   -3.61736400
 C                  2.25171500   -1.82548800   -0.57919200
 C                  3.00775000   -2.84376100   -1.18815900
 C                  2.49035800   -3.53697800   -2.28821200
 C                  1.21408300   -3.19369500   -2.76140800
 C                  0.50532700   -2.17516200   -2.11799100
 N                  0.99915600   -1.49323900   -1.04973700
 H                  3.07257700   -4.33058400   -2.76583600
 H                  3.99789200   -3.09849900   -0.80165400
 H                  0.76525600   -3.70563600   -3.61736400
 H                 -0.49022600   -1.87512300   -2.45342500
 C                  2.70677700   -1.03729800    0.57919200
 C                  3.96664400   -1.18290700    1.18815900
 N                  1.79276100   -0.11867500    1.04973700
 C                  4.30829200   -0.38822400    2.28821200
 H                  4.68232400   -1.91302600    0.80165400
 C                  2.13640900    0.64995500    2.11799100
 C                  3.37286200    0.54542100    2.76140800
 H                  5.28668500   -0.49563800    2.76583600
 H                  1.37879100    1.36211000    2.45342500
 H                  3.59180300    1.19008700    3.61736400

C N H
6-311G*
****
Ru
SDD
****

Ru
SDD

