%chk=C:\gtest\tdmat.chk
#P zindo(nstates=10) density=transition=1 iop(6/8=3)

PM6 optimized

0 1
 C                -12.23469000   -1.59949700   -0.44519000
 C                -10.90485300   -1.89416000   -0.41362000
 C                 -9.91985900   -0.84695000   -0.26327300
 C                -10.36853300    0.50925300   -0.14757300
 C                -11.78816300    0.77763200   -0.18600400
 C                -12.68490400   -0.23810600   -0.32928500
 C                 -8.54611200   -1.12747500   -0.22848900
 C                 -9.42758700    1.53918300   -0.00043800
 C                 -8.05447200    1.25843200    0.03458600
 C                 -7.60516500   -0.09749600   -0.08196600
 C                 -6.18786600   -0.36800000   -0.04497800
 H                 -5.86066100   -1.40374200   -0.13102800
 C                 -5.28440700    0.64776600    0.10266900
 C                 -5.73932300    2.01359000    0.22081600
 C                 -7.06844500    2.30452500    0.18588200
 H                 -8.20526000   -2.15857900   -0.31589600
 H                -12.98493200   -2.38050500   -0.55800000
 H                -10.55050800   -2.92028000   -0.50015200
 H                -12.11524200    1.81256100   -0.09714600
 H                -13.75638400   -0.04727400   -0.35946000
 H                 -9.76850900    2.57024400    0.08779900
 H                 -4.98900200    2.79603800    0.33001500
 H                 -7.42269600    3.33146800    0.27016300
 C                 -3.82937400    0.38281300    0.14497700
 C                 -3.07180600    0.78122600    1.25797700
 C                 -3.19872100   -0.26881300   -0.92659800
 C                 -1.70051500    0.52722100    1.30039900
 H                 -3.55871700    1.28369000    2.09318800
 C                 -1.82581400   -0.51640200   -0.88722600
 H                 -3.78299200   -0.57632400   -1.79332700
 C                 -1.06859000   -0.12149600    0.22711800
 H                 -1.11579500    0.83834500    2.16540700
 H                 -1.34032200   -1.02376100   -1.72018900
 C                  0.38560400   -0.38681600    0.27068500
 C                  0.93813400   -1.12394500    1.33114400
 C                  1.22321500    0.09399200   -0.74751000
 C                  2.30850800   -1.37819000    1.37050900
 H                  0.29077900   -1.50435900    2.12071100
 C                  2.59623800   -0.15246000   -0.70346300
 H                  0.80002700    0.66719000   -1.57182400
 C                  3.15184900   -0.88857800    0.35651600
 H                  2.72818100   -1.95283500    2.19495600
 H                  3.23819700    0.22061400   -1.50028400
 C                  4.59389600   -1.16777300    0.41952300
 H                  4.85337000   -2.16976100    0.77201400
 C                  5.54066100   -0.27393200    0.08828100
 H                  5.27492800    0.73266200   -0.24674500
 C                  6.96872800   -0.57538800    0.16207400
 H                  7.23312600   -1.58986100    0.47261300
 C                  7.91759000    0.33277900   -0.13184300
 H                  7.65285400    1.34734100   -0.44101200
 C                  9.34483400    0.02984200   -0.05794900
 H                  9.60343700   -0.99039000    0.24037400
 C                 10.28940200    0.94828300   -0.33477700
 H                 10.01152800    1.97026400   -0.62174400
 C                 11.71085200    0.70883500   -0.28149600
 C                 12.73647700    1.61457500   -0.27342100
 S                 12.36627800   -0.91644100   -0.23061800
 C                 14.04355100    1.00496200   -0.21988900
 H                 12.61225000    2.68805400   -0.29889200
 C                 14.01162500   -0.35537800   -0.19207600
 H                 14.94474600    1.60386500   -0.20467900
 H                 14.83536500   -1.04594500   -0.15352900

