%chk=C:\propylene+1.chk
# B3LYP/6-31G** nosymm

The geometry has been optimized at neutral state

1 2
 C                 -1.14199900   -0.51005000    0.00000000
 H                 -2.11166000   -0.00534400    0.00000000
 H                 -1.10943300   -1.16024800    0.88160200
 H                 -1.10943300   -1.16024800   -0.88160200
 C                  0.00000000    0.47998700    0.00000000
 H                 -0.27066400    1.53532200    0.00000000
 C                  1.29289600    0.15604600    0.00000000
 H                  1.62592200   -0.87985200    0.00000000
 H                  2.06988100    0.91447200    0.00000000

