%chk=C:\uracil.chk
#p PBE1PBE/6-31G* TD IOp(9/40=4)

B3LYP/6-31G* opted

0 1
 C                 -1.23749815    0.36573215   -0.00000000
 C                  0.05337385   -1.70928465    0.00000000
 C                  1.24151979   -1.06801061    0.00000000
 C                  1.28200385    0.39168010    0.00000000
 H                 -0.02061908    2.00141365   -0.00000000
 H                 -2.02597565   -1.51440798   -0.00000000
 H                 -0.03161872   -2.79076675    0.00000000
 H                  2.18093078   -1.60364321    0.00000000
 N                 -0.00000000    0.98771295   -0.00000000
 N                 -1.14105931   -1.02649028   -0.00000000
 O                  2.28466327    1.08546823    0.00000000
 O                 -2.30362555    0.95179972   -0.00000000

