%chk=C:\BH3.chk
# b3lyp/6-31g(d) nosymm

B3LYP/6-31G* opted

0 1
 B                  0.00172412   -1.34582485    0.00000000
 H                 -1.16791180   -1.65644397   -0.00000000
 H                  0.58691660   -1.65631886    1.01292333
 H                  0.58691660   -1.65631886   -1.01292333

