%chk=C:\COBH3.chk
# B3LYP/6-31G* opt

B3LYP/6-31G* opted

0 1
 C                     0.        0.       -0.09962 
 O                     0.        0.       -1.20782 
 B                     0.        0.        1.5275 
 H                     1.17227   0.        1.79707 
 H                    -0.58614  -1.01522   1.79707 
 H                    -0.58614   1.01522   1.79707 

