%chk=C:\gtest\boron\B11-.chk
# HF/sto-3g pop=nboread

b3lyp/6-311+G* opted

-1 1
 B                  0.00000000    0.88548000    0.02740809
 B                  0.00000000    0.78898000   -1.81538691
 B                  0.00000000   -0.78898000   -1.81538691
 B                  0.00000000   -0.88548000    0.02740809
 B                  0.00000000   -2.14952000   -1.11929891
 B                 -0.00000000    2.14952000   -1.11929891
 B                  0.00000000    0.00000000    1.75610309
 B                  0.00000000    1.55969700    1.61968009
 B                  0.00000000   -1.55969700    1.61968009
 B                  0.00000000    2.50723100    0.40954609
 B                  0.00000000   -2.50723100    0.40954609

$NBO DMNAO AONAO $END

