# b3lyp/6-311g(d) pop=nboread

b3lyp/6-311+G* opted

1 1
 Li                 0.00000000    1.55361400    0.00000000
 Li                -1.34546900   -0.77680700    0.00000000
 Li                 1.34546900   -0.77680700    0.00000000
 Li                 0.00000000    0.00000000    2.73799900
 Li                 0.00000000    0.00000000   -2.73799900

$NBO archive file=C:\Li5+ $END

