%chk=C:\gtest\phenanthrene.chk
# b3lyp/3-21g pop=nboread

b3lyp/3-21g opted

0 1
 C                  0.00000000    3.56061700   -0.29722900
 C                  0.00000000    2.83932500    0.87979300
 C                  0.00000000    1.42361400    0.86771500
 C                  0.00000000    0.72986200   -0.38070000
 C                  0.00000000    1.49924400   -1.56931800
 C                  0.00000000    2.88151800   -1.53149000
 C                  0.00000000    0.67926500    2.09717700
 C                  0.00000000   -0.72986200   -0.38070000
 C                  0.00000000   -1.42361400    0.86771500
 C                  0.00000000   -0.67926500    2.09717700
 C                  0.00000000   -2.83932500    0.87979300
 H                  0.00000000   -3.34927800    1.83744900
 C                  0.00000000   -3.56061700   -0.29722900
 C                  0.00000000   -2.88151800   -1.53149000
 C                  0.00000000   -1.49924400   -1.56931800
 H                  0.00000000    1.23356400    3.02968400
 H                  0.00000000    4.64400700   -0.27588200
 H                  0.00000000    3.34927800    1.83744900
 H                  0.00000000    1.00203800   -2.53051300
 H                  0.00000000    3.44643700   -2.45642700
 H                  0.00000000   -1.23356400    3.02968400
 H                  0.00000000   -4.64400700   -0.27588200
 H                  0.00000000   -3.44643700   -2.45642700
 H                  0.00000000   -1.00203800   -2.53051300

$nbo dmnao aonao $end

