# B3LYP/6-311G** IOp(6/33=2,6/42=6) pop=MK

Title Card Required

0 1
 O                 -2.39217804    1.73950810    0.33635354
 O                 -3.20073092   -0.78508720    0.39572524
 N                  3.13382878   -0.59857886    1.21972835
 C                  2.20198046    0.41232221   -0.92988796
 C                  0.76502318    0.06527772   -0.63650942
 C                  3.04470837    0.57695807    0.35761973
 C                 -0.15399262    1.07247748   -0.31455038
 C                  0.32675541   -1.25585177   -0.60087982
 C                 -1.46937029    0.78447480    0.02600580
 C                 -0.99262561   -1.55847316   -0.25799144
 C                 -1.89874906   -0.55475582    0.05739043
 H                  2.25377867    1.34172659   -1.50804237
 H                  2.65174633   -0.37179113   -1.54838742
 H                  4.06076684    0.87602593    0.08147116
 H                  2.62771374    1.39715542    0.95087147
 H                  0.16330524    2.11223837   -0.33492071
 H                  1.01070588   -2.05823040   -0.85078638
 H                 -1.32493788   -2.59242258   -0.23986813
 H                  3.55246744   -1.37254520    0.71156433
 H                  2.20101579   -0.90170069    1.48475437
 H                 -1.97203858    2.60344450    0.27829030
 H                 -3.36043215   -1.73379317    0.37314302

