# B3LYP/6-311G** out=wfn nosymm

Title Card Required

0 1
 C       0.00000000    0.00000000    1.78400000
 H       0.00000000    0.00000000    2.88100000
 H       0.00000000    1.03500000    1.41700000
 H      -0.89600000   -0.51700000    1.41700000
 H       0.89600000   -0.51700000    1.41700000
 
 c:\monomer1.wfn
 