#p PBE1PBE/daug-cc-pVTZ polar=gamma

pbe1pbe/aug-cc-pVTZ opted

0 1
 N                  0.00000000    0.00000000    0.11367600
 H                  0.00000000    0.93902800   -0.26524400
 H                 -0.81322200   -0.46951400   -0.26524400
 H                  0.81322200   -0.46951400   -0.26524400

532nm 680nm

