%mem=20GB
%nprocshared=8
%chk=C:\ethane.chk
# B3LYP/6-31G* opt

Title Card Required

0 1
 C                 -0.00000000    0.00000000   -0.76999997
 H                  0.00000000    1.00880580   -1.12666628
 H                 -0.87365145   -0.50440290   -1.12666628
 H                  0.87365145   -0.50440290   -1.12666628
 C                  0.00000000    0.00000000    0.76999997
 H                 -0.00000000   -1.00880580    1.12666628
 H                  0.87365145    0.50440290    1.12666628
 H                 -0.87365145    0.50440290    1.12666628

