%chk=dopamine4.chk
# B3LYP/6-311G** em=GD3BJ opt freq

 Title Card Required

 0 1
O          -2.33600668      1.91515312      0.04424727
O          -3.47221787     -0.42839092      0.34411760
N           2.88899083     -1.05033104      1.49302731
C           2.07420284     -0.15089645     -0.66216398
C           0.60189655     -0.24770653     -0.40947099
C           2.83325508      0.16259032      0.64384782
C          -0.16224791      0.92422305     -0.31523734
C          -0.00399188     -1.49022615     -0.25255009
C          -1.52386628      0.83335914     -0.06159897
C          -1.37474071     -1.58749279      0.00551484
C          -2.13563129     -0.43057805      0.10175038
H           2.29429490      0.62894800     -1.41739431
H           2.47074156     -1.09563629     -1.09348421
H           3.88272824      0.44849273      0.40704234
H           2.36378220      1.02859298      1.15710626
H           0.31122709      1.89284188     -0.44172618
H           0.58931078     -2.40005836     -0.33313165
H          -1.83586613     -2.56404694      0.12569161
H           1.97575631     -1.46484678      1.60235401
H           3.26109971     -0.84609541      2.40569363
H          -1.83138784      2.75694889     -0.08971866
H          -3.81492859     -1.35071339      0.45620731

