%chk=dopamine2.chk
# B3LYP/6-311G** em=GD3BJ opt freq

 Title Card Required

 0 1
O          -2.47483245      1.86700809     -0.16568458
O          -3.43199300     -0.49833104      0.43271839
N           2.62634666      1.04815732      1.49091503
C           2.05686206      0.03626425     -0.76471504
C           0.60256254     -0.12335973     -0.45274863
C           2.90467882     -0.03103323      0.52897229
C          -0.24070406      0.99624139     -0.46515934
C           0.09041880     -1.37914295     -0.13927742
C          -1.58771012      0.84109802     -0.16460417
C          -1.26329621     -1.54018462      0.16817731
C          -2.10371390     -0.43494917      0.15595764
H           2.25540601      0.98752118     -1.29463409
H           2.39085649     -0.75589161     -1.46526641
H           2.73479290     -1.00268554      1.04427714
H           3.98578660      0.00588973      0.27109162
H           0.15508308      1.97489261     -0.71706617
H           0.74559791     -2.24780955     -0.13086037
H          -1.65074237     -2.52581291      0.41204024
H           1.67373417      1.01138448      1.82147332
H           2.79061295      1.95797121      1.09316676
H          -2.03196876      2.72653212     -0.38159440
H          -3.70638059     -1.42637074      0.64397390

